# generated using pymatgen
data_AgC6(N2O)2
_symmetry_space_group_name_H-M   'P 1'
_cell_length_a   7.65941287
_cell_length_b   7.66036000
_cell_length_c   27.97551830
_cell_angle_alpha   90.00000000
_cell_angle_beta   90.00000000
_cell_angle_gamma   81.52461390
_symmetry_Int_Tables_number   1
_chemical_formula_structural   AgC6(N2O)2
_chemical_formula_sum   'Ag1 C6 N4 O2'
_cell_volume   1623.50601173
_cell_formula_units_Z   1
loop_
 _symmetry_equiv_pos_site_id
 _symmetry_equiv_pos_as_xyz
  1  'x, y, z'
loop_
 _atom_site_type_symbol
 _atom_site_label
 _atom_site_symmetry_multiplicity
 _atom_site_fract_x
 _atom_site_fract_y
 _atom_site_fract_z
 _atom_site_occupancy
  Ag  Ag0  1  0.27785238  0.69950754  0.50000956  1.0
  C  C1  1  0.93310132  0.76505303  0.42314751  1.0
  C  C2  1  0.21261680  0.04427527  0.57682648  1.0
  C  C3  1  0.61959102  0.77761266  0.43013435  1.0
  C  C4  1  0.19976586  0.35773013  0.56987113  1.0
  C  C5  1  0.17257244  0.21258997  0.60081865  1.0
  C  C6  1  0.76467194  0.80487596  0.39918641  1.0
  N  N7  1  0.50632841  0.75189713  0.45591030  1.0
  N  N8  1  0.22510502  0.47107891  0.54407997  1.0
  N  N9  1  0.06788229  0.73204398  0.44300484  1.0
  N  N10  1  0.24533506  0.90945714  0.55697996  1.0
  O  O11  1  0.12099062  0.23023908  0.64276179  1.0
  O  O12  1  0.74696578  0.85634579  0.35723056  1.0
