# generated using pymatgen
data_CaPH4O5F
_symmetry_space_group_name_H-M   'P 1'
_cell_length_a   5.66080099
_cell_length_b   6.18823137
_cell_length_c   27.81934107
_cell_angle_alpha   90.00000000
_cell_angle_beta   90.00000000
_cell_angle_gamma   113.43215829
_symmetry_Int_Tables_number   1
_chemical_formula_structural   CaPH4O5F
_chemical_formula_sum   'Ca2 P2 H8 O10 F2'
_cell_volume   894.15392588
_cell_formula_units_Z   2
loop_
 _symmetry_equiv_pos_site_id
 _symmetry_equiv_pos_as_xyz
  1  'x, y, z'
loop_
 _atom_site_type_symbol
 _atom_site_label
 _atom_site_symmetry_multiplicity
 _atom_site_fract_x
 _atom_site_fract_y
 _atom_site_fract_z
 _atom_site_occupancy
  Ca  Ca0  1  0.73022711  0.69750184  0.45847136  1.0
  Ca  Ca1  1  0.67790549  0.18725187  0.54152765  1.0
  P  P2  1  0.18809325  0.16680209  0.45681886  1.0
  P  P3  1  0.22005320  0.71796040  0.54318197  1.0
  H  H4  1  0.76469128  0.32754544  0.38866343  1.0
  H  H5  1  0.52298929  0.37036604  0.37627001  1.0
  H  H6  1  0.53945537  0.82959333  0.36624117  1.0
  H  H7  1  0.40342730  0.91007500  0.40833444  1.0
  H  H8  1  0.86868284  0.05514645  0.63375563  1.0
  H  H9  1  0.00471292  0.97468084  0.59166426  1.0
  H  H10  1  0.64343394  0.55721614  0.61133547  1.0
  H  H11  1  0.88513672  0.51436951  0.62372913  1.0
  O  O12  1  0.15723096  0.95181376  0.42608685  1.0
  O  O13  1  0.70597118  0.45413031  0.38289104  1.0
  O  O14  1  0.95233445  0.10922361  0.48873054  1.0
  O  O15  1  0.45150035  0.29540339  0.48028427  1.0
  O  O16  1  0.56930868  0.89569822  0.39836408  1.0
  O  O17  1  0.25089732  0.93293255  0.57391206  1.0
  O  O18  1  0.45579774  0.77552924  0.51127028  1.0
  O  O19  1  0.95662807  0.58934495  0.51971412  1.0
  O  O20  1  0.83882214  0.98905739  0.60164085  1.0
  O  O21  1  0.70218066  0.43063288  0.61711202  1.0
  F  F22  1  0.17588212  0.36207415  0.41806028  1.0
  F  F23  1  0.23224852  0.52267696  0.58194022  1.0
