# generated using pymatgen
data_Tl2Hg3Se4
_symmetry_space_group_name_H-M   'P 1'
_cell_length_a   13.49727814
_cell_length_b   15.27143668
_cell_length_c   23.70614327
_cell_angle_alpha   90.00000000
_cell_angle_beta   90.00000000
_cell_angle_gamma   27.89327103
_symmetry_Int_Tables_number   1
_chemical_formula_structural   Tl2Hg3Se4
_chemical_formula_sum   'Tl4 Hg6 Se8'
_cell_volume   2285.97444205
_cell_formula_units_Z   2
loop_
 _symmetry_equiv_pos_site_id
 _symmetry_equiv_pos_as_xyz
  1  'x, y, z'
loop_
 _atom_site_type_symbol
 _atom_site_label
 _atom_site_symmetry_multiplicity
 _atom_site_fract_x
 _atom_site_fract_y
 _atom_site_fract_z
 _atom_site_occupancy
  Tl  Tl0  1  0.52704604  0.08336549  0.56047582  1.0
  Tl  Tl1  1  0.69375634  0.41664836  0.56047596  1.0
  Tl  Tl2  1  0.01267077  0.08335257  0.43952404  1.0
  Tl  Tl3  1  0.17938105  0.41663546  0.43952419  1.0
  Hg  Hg4  1  0.71770231  0.63551192  0.49999560  1.0
  Hg  Hg5  1  0.19882773  0.12109356  0.57080552  1.0
  Hg  Hg6  1  0.26543001  0.12108613  0.42919330  1.0
  Hg  Hg7  1  0.98872484  0.86448896  0.50000440  1.0
  Hg  Hg8  1  0.50759940  0.37890735  0.42919448  1.0
  Hg  Hg9  1  0.44099714  0.37891476  0.57080670  1.0
  Se  Se10  1  0.63617089  0.86562367  0.45995893  1.0
  Se  Se11  1  0.33902038  0.86562249  0.54004253  1.0
  Se  Se12  1  0.65604399  0.11206304  0.42179437  1.0
  Se  Se13  1  0.07025624  0.63437722  0.54004108  1.0
  Se  Se14  1  0.36740667  0.63437852  0.45995745  1.0
  Se  Se15  1  0.05038313  0.38793788  0.57820569  1.0
  Se  Se16  1  0.88018878  0.38792912  0.42178772  1.0
  Se  Se17  1  0.82623833  0.11207170  0.57821226  1.0
