# generated using pymatgen
data_Mg5(HO3)2
_symmetry_space_group_name_H-M   'P 1'
_cell_length_a   3.04469755
_cell_length_b   3.04469755
_cell_length_c   33.87899001
_cell_angle_alpha   90.00000000
_cell_angle_beta   90.00000000
_cell_angle_gamma   120.00000000
_symmetry_Int_Tables_number   1
_chemical_formula_structural   Mg5(HO3)2
_chemical_formula_sum   'Mg5 H2 O6'
_cell_volume   271.98778610
_cell_formula_units_Z   1
loop_
 _symmetry_equiv_pos_site_id
 _symmetry_equiv_pos_as_xyz
  1  'x, y, z'
loop_
 _atom_site_type_symbol
 _atom_site_label
 _atom_site_symmetry_multiplicity
 _atom_site_fract_x
 _atom_site_fract_y
 _atom_site_fract_z
 _atom_site_occupancy
  Mg  Mg0  1  0.66666667  0.33333333  0.57226976  1.0
  Mg  Mg1  1  0.33333333  0.66666667  0.64483292  1.0
  Mg  Mg2  1  0.33333333  0.66666667  0.42773024  1.0
  Mg  Mg3  1  0.00000000  0.00000000  0.50000000  1.0
  Mg  Mg4  1  0.66666667  0.33333333  0.35516708  1.0
  H  H5  1  0.66666667  0.33333333  0.70452029  1.0
  H  H6  1  0.33333333  0.66666667  0.29547971  1.0
  O  O7  1  0.33333333  0.66666667  0.53608905  1.0
  O  O8  1  0.00000000  0.00000000  0.60834916  1.0
  O  O9  1  0.66666667  0.33333333  0.67610385  1.0
  O  O10  1  0.66666667  0.33333333  0.46391095  1.0
  O  O11  1  0.00000000  0.00000000  0.39165084  1.0
  O  O12  1  0.33333333  0.66666667  0.32389615  1.0
