# generated using pymatgen
data_Na2CoSe2
_symmetry_space_group_name_H-M   'P 1'
_cell_length_a   5.63977846
_cell_length_b   6.40873342
_cell_length_c   18.51660562
_cell_angle_alpha   90.00000000
_cell_angle_beta   90.00000000
_cell_angle_gamma   90.00000000
_symmetry_Int_Tables_number   1
_chemical_formula_structural   Na2CoSe2
_chemical_formula_sum   'Na4 Co2 Se4'
_cell_volume   669.26116973
_cell_formula_units_Z   2
loop_
 _symmetry_equiv_pos_site_id
 _symmetry_equiv_pos_as_xyz
  1  'x, y, z'
loop_
 _atom_site_type_symbol
 _atom_site_label
 _atom_site_symmetry_multiplicity
 _atom_site_fract_x
 _atom_site_fract_y
 _atom_site_fract_z
 _atom_site_occupancy
  Na  Na0  1  0.50000000  0.83193555  0.58274116  1.0
  Na  Na1  1  0.00000000  0.16806445  0.58274116  1.0
  Na  Na2  1  0.00000000  0.83193555  0.41725884  1.0
  Na  Na3  1  0.50000000  0.16806445  0.41725884  1.0
  Co  Co4  1  0.25000000  0.50000000  0.50000000  1.0
  Co  Co5  1  0.75000000  0.50000000  0.50000000  1.0
  Se  Se6  1  0.50000000  0.29888357  0.57438417  1.0
  Se  Se7  1  0.00000000  0.70111643  0.57438417  1.0
  Se  Se8  1  0.00000000  0.29888357  0.42561583  1.0
  Se  Se9  1  0.50000000  0.70111643  0.42561583  1.0
